NIGLOBAL = 240
NJGLOBAL = 560
DT = 600.
#override HMIX_UV_SFC_PROP = 5.0
#override INTERNAL_WAVE_SPEED_BETTER_EST = False
