NIGLOBAL = 240
NJGLOBAL = 560
DT = 1200.
