 &MOM_input_nml
         output_directory = 'OUTPUT/',
         input_filename = 'f'
         restart_input_dir = 'INPUT/',
         restart_output_dir = 'RESTART/',
         parameter_filename = 'MOM_input',
                              'MOM_layout',
                              'MOM_override' /

 &diag_manager_nml
        flush_nc_files=T,
 /

 &fms_nml
        clock_grain='ROUTINE'
        clock_flags='SYNC'
        domains_stack_size = 12255296
        stack_size =0 /
