NIGLOBAL = 320
NJGLOBAL = 560
DT = 1200.
DAYMAX = 14600.
